*HEADING
cubit(eneous-waveguide-solver/microstrip_mesh_test_20220706.inp): 07/06/2022: 16
version: 2021.11
**
********************************** P A R T S **********************************
*PART, NAME=Part-Default
**
********************************** N O D E S **********************************
*NODE, NSET=ALLNODES
       1,   -1.270000e-03,    2.387600e-03,    0.000000e+00
       2,   -1.270000e-03,    5.969000e-04,    0.000000e+00
       3,   -8.890000e-05,    5.969000e-04,    0.000000e+00
       4,   -8.890000e-05,    6.069000e-04,    0.000000e+00
       5,    8.890000e-05,    6.069000e-04,    0.000000e+00
       6,    8.890000e-05,    5.969000e-04,    0.000000e+00
       7,    1.270000e-03,    5.969000e-04,    0.000000e+00
       8,    1.270000e-03,    2.387600e-03,    0.000000e+00
       9,   -1.270000e-03,    2.249854e-03,    0.000000e+00
      10,   -1.270000e-03,    2.112108e-03,    0.000000e+00
      11,   -1.270000e-03,    1.974362e-03,    0.000000e+00
      12,   -1.270000e-03,    1.836615e-03,    0.000000e+00
      13,   -1.270000e-03,    1.698869e-03,    0.000000e+00
      14,   -1.270000e-03,    1.561123e-03,    0.000000e+00
      15,   -1.270000e-03,    1.423377e-03,    0.000000e+00
      16,   -1.270000e-03,    1.285631e-03,    0.000000e+00
      17,   -1.270000e-03,    1.147885e-03,    0.000000e+00
      18,   -1.270000e-03,    1.010138e-03,    0.000000e+00
      19,   -1.270000e-03,    8.723923e-04,    0.000000e+00
      20,   -1.270000e-03,    7.346462e-04,    0.000000e+00
** ... 529 like lines cut
**
********************************** E L E M E N T S ****************************
*ELEMENT, TYPE=STRI3, ELSET=Vacuum
       1,      27,      87,      26
       2,      11,      88,      10
       3,      89,      88,      11
       4,      51,       3,       4
       5,      90,      51,       4
       6,      59,      58,      91
       7,      92,      59,      91
       8,      64,      96,      20
       9,      50,       1,       9
      10,      97,      12,      13
      11,      98,      13,      14
      12,      99,      52,      90
      13,     100,      53,      99
      14,     101,      54,     100
      15,     102,      14,      15
      16,     234,     220,     213
      17,     103,      15,      16
      18,     104,      16,      17
      19,     105,      17,      18
      20,     106,      18,      19
** ... 706 like lines cut
*ELEMENT, TYPE=STRI3, ELSET=Substrate
     727,      56,     433,      55
     728,     416,     434,     415
     729,     435,     434,     416
     730,     419,     436,     418
     731,     437,     436,     419
     732,     438,     437,     420
     733,     409,     422,     421
     734,     439,     417,     418
     735,     440,     414,     415
     736,     441,     412,     413
     737,       7,      73,     423
     738,     442,     411,     412
     739,     443,     422,     423
     740,     444,     410,     411
     741,     438,     421,     422
     742,     445,     423,      73
     743,     432,     408,     410
     744,     446,     445,      74
     745,     448,     447,      76
     746,     449,     448,      77
** ... 269 like lines cut
*ELEMENT, TYPE=B21, ELSET=PEC
    1016,     408,     410
    1017,     410,     411
    1018,     411,     412
    1019,     412,     413
    1020,     413,     414
    1021,     414,     415
    1022,     415,     416
    1023,     416,     417
    1024,     417,     418
    1025,     418,     419
    1026,     419,     420
    1027,     420,     421
    1028,     421,     409
    1029,     409,     422
    1030,     422,     423
    1031,     423,       7
    1032,       2,     431
    1033,     431,     432
    1034,     432,     408
    1035,       1,       9
** ... 55 like lines cut
**
********************************** P R O P E R T I E S ************************
*SHELL SECTION, ELSET=Vacuum, SECTION INTEGRATION=SIMPSON, MATERIAL=Default-Steel
1.000000e+00
*SHELL SECTION, ELSET=Substrate, SECTION INTEGRATION=SIMPSON, MATERIAL=Default-Steel
1.000000e+00
**
*END PART
**
**
**
********************************** E N D   P A R T S **********************************
**
**
********************************** A S S E M B L Y ************************************
**
*ASSEMBLY, NAME=ASSEMBLY1
**
*INSTANCE, NAME=Part-Default_1, PART=Part-Default
*END INSTANCE
**
*END ASSEMBLY
**
**
**
*MATERIAL, NAME = Default-Steel
*ELASTIC, TYPE=ISOTROPIC
2.068000e+05, 2.900000e-01
*DENSITY
7.000000e-06
*CONDUCTIVITY,TYPE=ISO
4.500000e-02
*SPECIFIC HEAT
5.000000e+02
**
**
************************************** H I S T O R Y *************************************
**
*PREPRINT
**
**************************************** S T E P 1 ***************************************
*STEP,INC=100,NAME=Default Set
**
*STATIC
1, 1, 1e-05, 1
**
**
**
**
*END STEP
