*HEADING
cubit(inhomogeneous_waveguide/rect_mesh_two_epsilons_coarse.inp): 03/17/2022: 02
version: 2021.11
**
********************************** P A R T S **********************************
*PART, NAME=Part-Default
**
********************************** N O D E S **********************************
*NODE, NSET=ALLNODES
       1,   -1.000000e+00,    5.000000e-01
       2,    1.000000e+00,    5.000000e-01
       3,    1.000000e+00,    0.000000e+00
       4,   -1.000000e+00,    0.000000e+00
       5,   -8.571429e-01,    5.000000e-01
       6,   -7.142857e-01,    5.000000e-01
       7,   -5.714286e-01,    5.000000e-01
       8,   -4.285714e-01,    5.000000e-01
       9,   -2.857143e-01,    5.000000e-01
      10,   -1.428571e-01,    5.000000e-01
      11,   -1.110223e-16,    5.000000e-01
      12,    1.428571e-01,    5.000000e-01
      13,    2.857143e-01,    5.000000e-01
      14,    4.285714e-01,    5.000000e-01
      15,    5.714286e-01,    5.000000e-01
      16,    7.142857e-01,    5.000000e-01
      17,    8.571429e-01,    5.000000e-01
      18,    1.000000e+00,    3.607242e-01
      19,    1.000000e+00,    2.215430e-01
      20,    1.000000e+00,    9.756721e-02
** ... 110 like lines cut
**
********************************** E L E M E N T S ****************************
*ELEMENT, TYPE=STRI3, ELSET=EB1
       1,      28,      37,      29
       2,      27,      38,      28
       3,      26,      40,      27
       4,      25,      41,      26
       5,      20,      21,       3
       6,      19,      42,      20
       7,      18,      43,      19
       8,      17,      18,       2
       9,      13,      44,      14
      10,      16,      45,      17
      11,      15,      46,      16
      12,      14,      47,      15
      13,      42,      22,      21
      14,      43,      70,      42
      15,       7,      49,       8
      16,       6,      50,       7
      17,      15,      47,      46
      18,       5,      52,       6
      19,      71,      41,      53
      20,       1,      36,       5
** ... 88 like lines cut
*ELEMENT, TYPE=STRI3, ELSET=EB2
     109,      82,      95,      83
     110,       3,      21,      76
     111,      21,      96,      76
     112,      79,      74,      78
     113,      95,      82,      97
     114,     100,      87,      86
     115,     100,     101,      87
     116,     101,     102,      88
     117,     102,     103,      89
     118,     120,     118,     103
     119,      92,      75,      91
     120,      22,      96,      21
     121,      23,     104,      22
     122,      24,     105,      23
     123,      77,     106,      78
     124,     106,      80,      79
     125,      25,     108,      24
     126,      26,     109,      25
     127,      27,     110,      26
     128,      28,     111,      27
** ... 86 like lines cut
*ELEMENT, TYPE=B21, ELSET=EB3
     215,       3,      76
     216,      76,      77
     217,      77,      78
     218,      78,      74
     219,       2,      18
     220,      18,      19
     221,      19,      20
     222,      20,       3
     223,       1,       5
     224,       5,       6
     225,       6,       7
     226,       7,       8
     227,       8,       9
     228,       9,      10
     229,      10,      11
     230,      11,      12
     231,      12,      13
     232,      13,      14
     233,      14,      15
     234,      15,      16
** ... 24 like lines cut
**
********************************** P R O P E R T I E S ************************
*SHELL SECTION, ELSET=EB1, SECTION INTEGRATION=SIMPSON, MATERIAL=Default-Steel
1.000000e+00
*SHELL SECTION, ELSET=EB2, SECTION INTEGRATION=SIMPSON, MATERIAL=Default-Steel
1.000000e+00
**
*END PART
**
**
**
********************************** E N D   P A R T S **********************************
**
**
********************************** A S S E M B L Y ************************************
**
*ASSEMBLY, NAME=ASSEMBLY1
**
*INSTANCE, NAME=Part-Default_1, PART=Part-Default
*END INSTANCE
**
*END ASSEMBLY
**
**
**
*MATERIAL, NAME = Default-Steel
*ELASTIC, TYPE=ISOTROPIC
2.068000e+05, 2.900000e-01
*DENSITY
7.000000e-06
*CONDUCTIVITY,TYPE=ISO
4.500000e-02
*SPECIFIC HEAT
5.000000e+02
**
**
************************************** H I S T O R Y *************************************
**
*PREPRINT
**
**************************************** S T E P 1 ***************************************
*STEP,INC=100,NAME=Default Set
**
*STATIC
1, 1, 1e-05, 1
**
**
**
**
*END STEP
