*HEADING
cubit(ts/fem_inhomogeneous_waveguide/rect_mesh_two_epsilons.inp): 03/08/2022: 18
version: 2021.11
**
********************************** P A R T S **********************************
*PART, NAME=Part-Default
**
********************************** N O D E S **********************************
*NODE, NSET=ALLNODES
       1,   -1.000000e+00,    0.000000e+00
       2,    1.000000e+00,    0.000000e+00
       3,    1.000000e+00,   -5.000000e-01
       4,   -1.000000e+00,   -5.000000e-01
       5,   -9.661017e-01,    0.000000e+00
       6,   -9.322034e-01,    0.000000e+00
       7,   -8.983051e-01,    0.000000e+00
       8,   -8.644068e-01,    0.000000e+00
       9,   -8.305085e-01,    0.000000e+00
      10,   -7.966102e-01,    0.000000e+00
      11,   -7.627119e-01,    0.000000e+00
      12,   -7.288136e-01,    0.000000e+00
      13,   -6.949153e-01,    0.000000e+00
      14,   -6.610169e-01,    0.000000e+00
      15,   -6.271186e-01,    0.000000e+00
      16,   -5.932203e-01,    0.000000e+00
      17,   -5.593220e-01,    0.000000e+00
      18,   -5.254237e-01,    0.000000e+00
      19,   -4.915254e-01,    0.000000e+00
      20,   -4.576271e-01,    0.000000e+00
** ... 2124 like lines cut
**
********************************** E L E M E N T S ****************************
*ELEMENT, TYPE=STRI3, ELSET=EB1
       1,    1193,    1221,    1194
       2,    1192,    1222,    1193
       3,    1191,    1223,    1192
       4,    1190,    1224,    1191
       5,    1189,    1225,    1190
       6,    1188,    1226,    1189
       7,    1187,    1227,    1188
       8,    1186,    1228,    1187
       9,    1185,    1229,    1186
      10,    1184,    1230,    1185
      11,    1183,    1231,    1184
      12,    1182,    1232,    1183
      13,    1181,    1233,    1182
      14,    1180,    1234,    1181
      15,    1179,    1235,    1180
      16,    1178,    1236,    1179
      17,    1177,    1237,    1178
      18,    1176,    1238,    1177
      19,    1175,    1239,    1176
      20,    1174,    1240,    1175
** ... 1974 like lines cut
*ELEMENT, TYPE=STRI3, ELSET=EB2
    1995,     121,     149,     122
    1996,     120,     150,     121
    1997,     119,     151,     120
    1998,     118,     152,     119
    1999,     117,     153,     118
    2000,     116,     154,     117
    2001,     115,     155,     116
    2002,     114,     156,     115
    2003,     113,     157,     114
    2004,     112,     158,     113
    2005,     111,     159,     112
    2006,     110,     160,     111
    2007,     109,     161,     110
    2008,     108,     162,     109
    2009,     107,     163,     108
    2010,     106,     164,     107
    2011,     105,     165,     106
    2012,     104,     166,     105
    2013,     103,     167,     104
    2014,     102,     168,     103
** ... 1974 like lines cut
*ELEMENT, TYPE=B21, ELSET=EB3
    3989,    1073,    1077
    3990,    1077,    1078
    3991,    1078,    1079
    3992,    1079,    1080
    3993,    1080,    1081
    3994,    1081,    1082
    3995,    1082,    1083
    3996,    1083,    1084
    3997,    1084,    1085
    3998,    1085,    1086
    3999,    1086,    1087
    4000,    1087,    1088
    4001,    1088,    1089
    4002,    1089,    1090
    4003,    1090,    1091
    4004,    1091,    1092
    4005,    1092,    1093
    4006,    1093,    1094
    4007,    1094,    1095
    4008,    1095,    1096
** ... 158 like lines cut
**
********************************** P R O P E R T I E S ************************
*SHELL SECTION, ELSET=EB1, SECTION INTEGRATION=SIMPSON, MATERIAL=Default-Steel
1.000000e+00
*SHELL SECTION, ELSET=EB2, SECTION INTEGRATION=SIMPSON, MATERIAL=Default-Steel
1.000000e+00
**
*END PART
**
**
**
********************************** E N D   P A R T S **********************************
**
**
********************************** A S S E M B L Y ************************************
**
*ASSEMBLY, NAME=ASSEMBLY1
**
*INSTANCE, NAME=Part-Default_1, PART=Part-Default
*END INSTANCE
**
*END ASSEMBLY
**
**
**
*MATERIAL, NAME = Default-Steel
*ELASTIC, TYPE=ISOTROPIC
2.068000e+05, 2.900000e-01
*DENSITY
7.000000e-06
*CONDUCTIVITY,TYPE=ISO
4.500000e-02
*SPECIFIC HEAT
5.000000e+02
**
**
************************************** H I S T O R Y *************************************
**
*PREPRINT
**
**************************************** S T E P 1 ***************************************
*STEP,INC=100,NAME=Default Set
**
*STATIC
1, 1, 1e-05, 1
**
**
**
**
*END STEP
