*HEADING
cubit(ogeneous_waveguide/rect_mesh_two_epsilons_less_coarse.inp): 03/20/2022: 05
version: 2021.11
**
********************************** P A R T S **********************************
*PART, NAME=Part-Default
**
********************************** N O D E S **********************************
*NODE, NSET=ALLNODES
       1,   -1.000000e+00,    5.000000e-01
       2,    1.000000e+00,    5.000000e-01
       3,    1.000000e+00,    0.000000e+00
       4,   -1.000000e+00,    0.000000e+00
       5,   -9.375000e-01,    5.000000e-01
       6,   -8.750000e-01,    5.000000e-01
       7,   -8.125000e-01,    5.000000e-01
       8,   -7.500000e-01,    5.000000e-01
       9,   -6.875000e-01,    5.000000e-01
      10,   -6.250000e-01,    5.000000e-01
      11,   -5.625000e-01,    5.000000e-01
      12,   -5.000000e-01,    5.000000e-01
      13,   -4.375000e-01,    5.000000e-01
      14,   -3.750000e-01,    5.000000e-01
      15,   -3.125000e-01,    5.000000e-01
      16,   -2.500000e-01,    5.000000e-01
      17,   -1.875000e-01,    5.000000e-01
      18,   -1.250000e-01,    5.000000e-01
      19,   -6.250000e-02,    5.000000e-01
      20,    8.881784e-16,    5.000000e-01
** ... 573 like lines cut
**
********************************** E L E M E N T S ****************************
*ELEMENT, TYPE=STRI3, ELSET=EB1
       1,      65,      81,      66
       2,      64,      82,      65
       3,      63,      83,      64
       4,      62,      84,      63
       5,      61,      85,      62
       6,      60,      86,      61
       7,      59,      87,      60
       8,      58,      88,      59
       9,      57,      89,      58
      10,      56,      90,      57
      11,      55,      91,      56
      12,      54,      92,      55
      13,      53,      93,      54
      14,      49,      95,      50
      15,      96,      30,      29
      16,      39,      97,      40
      17,      38,      98,      39
      18,      37,     100,      38
      19,      36,     101,      37
      20,      35,      36,       2
** ... 554 like lines cut
*ELEMENT, TYPE=STRI3, ELSET=EB2
     575,       3,      43,     331
     576,      43,     376,     331
     577,     376,     377,     332
     578,     377,     378,     333
     579,     338,     379,     339
     580,     338,     329,     337
     581,     380,     346,     345
     582,      51,      52,     381
     583,     380,     382,     346
     584,      54,      55,     383
     585,     384,     350,     349
     586,     385,     352,     351
     587,      57,      58,     386
     588,     385,     387,     352
     589,     388,     355,     354
     590,      60,      61,     389
     591,     388,     390,     355
     592,      62,     391,     430
     593,     391,     489,     430
     594,     392,     393,     358
** ... 494 like lines cut
*ELEMENT, TYPE=B21, ELSET=EB3
    1089,       2,      36
    1090,      36,      37
    1091,      37,      38
    1092,      38,      39
    1093,      39,      40
    1094,      40,      41
    1095,      41,      42
    1096,      42,       3
    1097,       1,       5
    1098,       5,       6
    1099,       6,       7
    1100,       7,       8
    1101,       8,       9
    1102,       9,      10
    1103,      10,      11
    1104,      11,      12
    1105,      12,      13
    1106,      13,      14
    1107,      14,      15
    1108,      15,      16
** ... 76 like lines cut
**
********************************** P R O P E R T I E S ************************
*SHELL SECTION, ELSET=EB1, SECTION INTEGRATION=SIMPSON, MATERIAL=Default-Steel
1.000000e+00
*SHELL SECTION, ELSET=EB2, SECTION INTEGRATION=SIMPSON, MATERIAL=Default-Steel
1.000000e+00
**
*END PART
**
**
**
********************************** E N D   P A R T S **********************************
**
**
********************************** A S S E M B L Y ************************************
**
*ASSEMBLY, NAME=ASSEMBLY1
**
*INSTANCE, NAME=Part-Default_1, PART=Part-Default
*END INSTANCE
**
*END ASSEMBLY
**
**
**
*MATERIAL, NAME = Default-Steel
*ELASTIC, TYPE=ISOTROPIC
2.068000e+05, 2.900000e-01
*DENSITY
7.000000e-06
*CONDUCTIVITY,TYPE=ISO
4.500000e-02
*SPECIFIC HEAT
5.000000e+02
**
**
************************************** H I S T O R Y *************************************
**
*PREPRINT
**
**************************************** S T E P 1 ***************************************
*STEP,INC=100,NAME=Default Set
**
*STATIC
1, 1, 1e-05, 1
**
**
**
**
*END STEP
