*HEADING
cubit(geneous-waveguide-solver/rect_mesh_one_epsilon_coarse.inp): 06/01/2022: 14
version: 2021.11
**
********************************** P A R T S **********************************
*PART, NAME=Part-Default
**
********************************** N O D E S **********************************
*NODE, NSET=ALLNODES
       1,    1.000000e+00,    5.000000e-01
       2,   -1.000000e+00,    5.000000e-01
       3,   -1.000000e+00,   -5.000000e-01
       4,    1.000000e+00,   -5.000000e-01
       5,    8.666667e-01,    5.000000e-01
       6,    7.333333e-01,    5.000000e-01
       7,    6.000000e-01,    5.000000e-01
       8,    4.666667e-01,    5.000000e-01
       9,    3.333333e-01,    5.000000e-01
      10,    2.000000e-01,    5.000000e-01
      11,    6.666667e-02,    5.000000e-01
      12,   -6.666667e-02,    5.000000e-01
      13,   -2.000000e-01,    5.000000e-01
      14,   -3.333333e-01,    5.000000e-01
      15,   -4.666667e-01,    5.000000e-01
      16,   -6.000000e-01,    5.000000e-01
      17,   -7.333333e-01,    5.000000e-01
      18,   -8.666667e-01,    5.000000e-01
      19,   -1.000000e+00,    3.571429e-01
      20,   -1.000000e+00,    2.142857e-01
** ... 120 like lines cut
**
********************************** E L E M E N T S ****************************
*ELEMENT, TYPE=STRI3, ELSET=EB1
       1,      45,      44,       5
       2,      10,      46,       9
       3,      47,      46,      10
       4,      13,      48,      12
       5,      15,      49,      14
       6,      50,      49,      15
       7,      51,      50,      16
       8,      52,      51,      17
       9,       2,      19,      18
      10,      53,      13,      14
      11,      54,      11,      12
      12,      55,      52,      19
      13,      56,       8,       9
      14,      58,       6,       7
      15,      59,      57,      21
      16,      44,       1,       5
      17,      24,      60,      23
      18,       3,      25,      24
      19,      61,      22,      23
      20,      62,      24,      25
** ... 214 like lines cut
*ELEMENT, TYPE=B21, ELSET=EB2
     235,       1,       5
     236,       5,       6
     237,       6,       7
     238,       7,       8
     239,       8,       9
     240,       9,      10
     241,      10,      11
     242,      11,      12
     243,      12,      13
     244,      13,      14
     245,      14,      15
     246,      15,      16
     247,      16,      17
     248,      17,      18
     249,      18,       2
     250,       2,      19
     251,      19,      20
     252,      20,      21
     253,      21,      22
     254,      22,      23
** ... 24 like lines cut
**
********************************** P R O P E R T I E S ************************
*SHELL SECTION, ELSET=EB1, SECTION INTEGRATION=SIMPSON, MATERIAL=Default-Steel
1.000000e+00
**
*END PART
**
**
**
********************************** E N D   P A R T S **********************************
**
**
********************************** A S S E M B L Y ************************************
**
*ASSEMBLY, NAME=ASSEMBLY1
**
*INSTANCE, NAME=Part-Default_1, PART=Part-Default
*END INSTANCE
**
*END ASSEMBLY
**
**
**
*MATERIAL, NAME = Default-Steel
*ELASTIC, TYPE=ISOTROPIC
2.068000e+05, 2.900000e-01
*DENSITY
7.000000e-06
*CONDUCTIVITY,TYPE=ISO
4.500000e-02
*SPECIFIC HEAT
5.000000e+02
**
**
************************************** H I S T O R Y *************************************
**
*PREPRINT
**
**************************************** S T E P 1 ***************************************
*STEP,INC=100,NAME=Default Set
**
*STATIC
1, 1, 1e-05, 1
**
**
**
**
*END STEP
