*HEADING
cubit(rdue.edu/Projects/fem_2d_solver/rectangular_waveguide.inp): 02/27/2022: 16
version: 2021.11
**
********************************** P A R T S **********************************
*PART, NAME=Part-Default
**
********************************** N O D E S **********************************
*NODE, NSET=ALLNODES
       1,    5.000000e-01,    1.000000e+00
       2,   -5.000000e-01,    1.000000e+00
       3,   -5.000000e-01,   -1.000000e+00
       4,    5.000000e-01,   -1.000000e+00
       5,    4.375000e-01,    1.000000e+00
       6,    3.750000e-01,    1.000000e+00
       7,    3.125000e-01,    1.000000e+00
       8,    2.500000e-01,    1.000000e+00
       9,    1.875000e-01,    1.000000e+00
      10,    1.250000e-01,    1.000000e+00
      11,    6.250000e-02,    1.000000e+00
      12,    1.110223e-16,    1.000000e+00
      13,   -6.250000e-02,    1.000000e+00
      14,   -1.250000e-01,    1.000000e+00
      15,   -1.875000e-01,    1.000000e+00
      16,   -2.500000e-01,    1.000000e+00
      17,   -3.125000e-01,    1.000000e+00
      18,   -3.750000e-01,    1.000000e+00
      19,   -4.375000e-01,    1.000000e+00
      20,   -5.000000e-01,    9.375000e-01
** ... 624 like lines cut
**
********************************** E L E M E N T S ****************************
*ELEMENT, TYPE=STRI3, ELSET=EB1
       1,      34,      35,      97
       2,      98,      96,       5
       3,      99,      98,       6
       4,       9,     100,       8
       5,     101,     100,       9
       6,     102,     101,      10
       7,      13,     103,      12
       8,     104,     103,      13
       9,     105,     104,      14
      10,     106,     105,      15
      11,     107,     106,      16
      12,     108,     107,      17
      13,     109,     108,      18
      14,       2,      20,      19
      15,     110,      11,      12
      16,     111,       7,       8
      17,     109,      19,      20
      18,      96,       1,       5
      19,     116,     115,      24
      20,     117,     116,      25
** ... 1170 like lines cut
*ELEMENT, TYPE=B21, ELSET=EB2
    1191,       1,       5
    1192,       5,       6
    1193,       6,       7
    1194,       7,       8
    1195,       8,       9
    1196,       9,      10
    1197,      10,      11
    1198,      11,      12
    1199,      12,      13
    1200,      13,      14
    1201,      14,      15
    1202,      15,      16
    1203,      16,      17
    1204,      17,      18
    1205,      18,      19
    1206,      19,       2
    1207,       2,      20
    1208,      20,      21
    1209,      21,      22
    1210,      22,      23
** ... 76 like lines cut
**
********************************** P R O P E R T I E S ************************
*SHELL SECTION, ELSET=EB1, SECTION INTEGRATION=SIMPSON, MATERIAL=Default-Steel
1.000000e+00
**
*END PART
**
**
**
********************************** E N D   P A R T S **********************************
**
**
********************************** A S S E M B L Y ************************************
**
*ASSEMBLY, NAME=ASSEMBLY1
**
*INSTANCE, NAME=Part-Default_1, PART=Part-Default
*END INSTANCE
**
*END ASSEMBLY
**
**
**
*MATERIAL, NAME = Default-Steel
*ELASTIC, TYPE=ISOTROPIC
2.068000e+05, 2.900000e-01
*DENSITY
7.000000e-06
*CONDUCTIVITY,TYPE=ISO
4.500000e-02
*SPECIFIC HEAT
5.000000e+02
**
**
************************************** H I S T O R Y *************************************
**
*PREPRINT
**
**************************************** S T E P 1 ***************************************
*STEP,INC=100,NAME=Default Set
**
*STATIC
1, 1, 1e-05, 1
**
**
**
**
*END STEP
