*HEADING
cubit(veguide-solver/rect_Mesh_one_epsilon_rotated_20220705.inp): 07/05/2022: 09
version: 2021.11
**
********************************** P A R T S **********************************
*PART, NAME=Part-Default
**
********************************** N O D E S **********************************
*NODE, NSET=ALLNODES
       1,    2.719009e-01,    4.872473e-01,    3.405838e-02
       2,   -4.479454e-01,   -1.555403e-01,    2.960610e-01
       3,   -2.719009e-01,   -4.872473e-01,   -3.405838e-02
       4,    4.479454e-01,    1.555403e-01,   -2.960610e-01
       5,    2.239112e-01,    4.443948e-01,    5.152523e-02
       6,    1.759214e-01,    4.015423e-01,    6.899207e-02
       7,    1.279316e-01,    3.586898e-01,    8.645891e-02
       8,    7.994189e-02,    3.158373e-01,    1.039258e-01
       9,    3.195214e-02,    2.729848e-01,    1.213926e-01
      10,   -1.603762e-02,    2.301322e-01,    1.388594e-01
      11,   -6.402737e-02,    1.872797e-01,    1.563263e-01
      12,   -1.120171e-01,    1.444272e-01,    1.737931e-01
      13,   -1.600069e-01,    1.015747e-01,    1.912600e-01
      14,   -2.079966e-01,    5.872222e-02,    2.087268e-01
      15,   -2.559864e-01,    1.586971e-02,    2.261936e-01
      16,   -3.039761e-01,   -2.698280e-02,    2.436605e-01
      17,   -3.519659e-01,   -6.983530e-02,    2.611273e-01
      18,   -3.999556e-01,   -1.126878e-01,    2.785942e-01
      19,   -4.227962e-01,   -2.029270e-01,    2.489011e-01
      20,   -3.976470e-01,   -2.503137e-01,    2.017412e-01
** ... 120 like lines cut
**
********************************** E L E M E N T S ****************************
*ELEMENT, TYPE=STRI3, ELSET=EB1
       1,      35,      45,      34
       2,      46,      44,       5
       3,      10,      47,       9
       4,      48,      47,      10
       5,      13,      49,      12
       6,      50,      54,      14
       7,      51,      50,      15
       8,      52,      51,      16
       9,      53,      52,      17
      10,       2,      19,      18
      11,      54,      13,      14
      12,      55,      11,      12
      13,      56,      53,      19
      14,      57,       8,       9
      15,      59,       6,       7
      16,      60,      58,      21
      17,      44,       1,       5
      18,      24,      61,      23
      19,       3,      25,      24
      20,      62,      22,      23
** ... 214 like lines cut
*ELEMENT, TYPE=B21, ELSET=EB2
     235,       1,       5
     236,       5,       6
     237,       6,       7
     238,       7,       8
     239,       8,       9
     240,       9,      10
     241,      10,      11
     242,      11,      12
     243,      12,      13
     244,      13,      14
     245,      14,      15
     246,      15,      16
     247,      16,      17
     248,      17,      18
     249,      18,       2
     250,       2,      19
     251,      19,      20
     252,      20,      21
     253,      21,      22
     254,      22,      23
** ... 24 like lines cut
**
********************************** P R O P E R T I E S ************************
*SHELL SECTION, ELSET=EB1, SECTION INTEGRATION=SIMPSON, MATERIAL=Default-Steel
1.000000e+00
**
*END PART
**
**
**
********************************** E N D   P A R T S **********************************
**
**
********************************** A S S E M B L Y ************************************
**
*ASSEMBLY, NAME=ASSEMBLY1
**
*INSTANCE, NAME=Part-Default_1, PART=Part-Default
*END INSTANCE
**
*END ASSEMBLY
**
**
**
*MATERIAL, NAME = Default-Steel
*ELASTIC, TYPE=ISOTROPIC
2.068000e+05, 2.900000e-01
*DENSITY
7.000000e-06
*CONDUCTIVITY,TYPE=ISO
4.500000e-02
*SPECIFIC HEAT
5.000000e+02
**
**
************************************** H I S T O R Y *************************************
**
*PREPRINT
**
**************************************** S T E P 1 ***************************************
*STEP,INC=100,NAME=Default Set
**
*STATIC
1, 1, 1e-05, 1
**
**
**
**
*END STEP
