*HEADING
cubit(aveguide-solver/rect_mesh_one_epsilon_coarse_20220615.inp): 06/15/2022: 22
version: 2021.11
**
********************************** P A R T S **********************************
*PART, NAME=Part-Default
**
********************************** N O D E S **********************************
*NODE, NSET=ALLNODES
       1,    5.000000e-01,    2.500000e-01
       2,   -5.000000e-01,    2.500000e-01
       3,   -5.000000e-01,   -2.500000e-01
       4,    5.000000e-01,   -2.500000e-01
       5,    4.000000e-01,    2.500000e-01
       6,    3.000000e-01,    2.500000e-01
       7,    2.000000e-01,    2.500000e-01
       8,    1.000000e-01,    2.500000e-01
       9,    1.665335e-16,    2.500000e-01
      10,   -1.000000e-01,    2.500000e-01
      11,   -2.000000e-01,    2.500000e-01
      12,   -3.000000e-01,    2.500000e-01
      13,   -4.000000e-01,    2.500000e-01
      14,   -5.000000e-01,    1.500000e-01
      15,   -5.000000e-01,    5.000000e-02
      16,   -5.000000e-01,   -5.000000e-02
      17,   -5.000000e-01,   -1.500000e-01
      18,   -4.000000e-01,   -2.500000e-01
      19,   -3.000000e-01,   -2.500000e-01
      20,   -2.000000e-01,   -2.500000e-01
** ... 52 like lines cut
**
********************************** E L E M E N T S ****************************
*ELEMENT, TYPE=STRI3, ELSET=EB1
       1,       6,       7,      31
       2,       9,      32,       8
       3,      11,      33,      10
       4,      34,      33,      11
       5,      35,      34,      12
       6,       2,      14,      13
       7,      36,       9,      10
       8,      37,       7,       8
       9,      38,      13,      14
      10,      39,       5,       6
      11,      30,       1,       5
      12,       3,      18,      17
      13,      41,      16,      17
      14,      42,      41,      18
      15,      44,      43,      20
      16,      46,      45,      22
      17,      37,       8,      32
      18,      48,      47,      24
      19,       4,      27,      26
      20,      49,      25,      26
** ... 92 like lines cut
*ELEMENT, TYPE=B21, ELSET=EB2
     113,       1,       5
     114,       5,       6
     115,       6,       7
     116,       7,       8
     117,       8,       9
     118,       9,      10
     119,      10,      11
     120,      11,      12
     121,      12,      13
     122,      13,       2
     123,       2,      14
     124,      14,      15
     125,      15,      16
     126,      16,      17
     127,      17,       3
     128,       3,      18
     129,      18,      19
     130,      19,      20
     131,      20,      21
     132,      21,      22
** ... 10 like lines cut
**
********************************** P R O P E R T I E S ************************
*SHELL SECTION, ELSET=EB1, SECTION INTEGRATION=SIMPSON, MATERIAL=Default-Steel
1.000000e+00
**
*END PART
**
**
**
********************************** E N D   P A R T S **********************************
**
**
********************************** A S S E M B L Y ************************************
**
*ASSEMBLY, NAME=ASSEMBLY1
**
*INSTANCE, NAME=Part-Default_1, PART=Part-Default
*END INSTANCE
**
*END ASSEMBLY
**
**
**
*MATERIAL, NAME = Default-Steel
*ELASTIC, TYPE=ISOTROPIC
2.068000e+05, 2.900000e-01
*DENSITY
7.000000e-06
*CONDUCTIVITY,TYPE=ISO
4.500000e-02
*SPECIFIC HEAT
5.000000e+02
**
**
************************************** H I S T O R Y *************************************
**
*PREPRINT
**
**************************************** S T E P 1 ***************************************
*STEP,INC=100,NAME=Default Set
**
*STATIC
1, 1, 1e-05, 1
**
**
**
**
*END STEP
