*HEADING
cubit(git_repos/inhomogeneous-waveguide-solver/z_plane_mesh.inp): 06/20/2022: 10
version: 2021.11
**
********************************** P A R T S **********************************
*PART, NAME=Part-Default
**
********************************** N O D E S **********************************
*NODE, NSET=ALLNODES
       1,    5.000000e-01,    1.530808e-17,   -2.500000e-01
       2,   -5.000000e-01,    1.530808e-17,   -2.500000e-01
       3,   -5.000000e-01,   -1.530808e-17,    2.500000e-01
       4,    5.000000e-01,   -1.530808e-17,    2.500000e-01
       5,    4.545455e-01,    1.530808e-17,   -2.500000e-01
       6,    4.090909e-01,    1.530808e-17,   -2.500000e-01
       7,    3.636364e-01,    1.530808e-17,   -2.500000e-01
       8,    3.181818e-01,    1.530808e-17,   -2.500000e-01
       9,    2.727273e-01,    1.530808e-17,   -2.500000e-01
      10,    2.272727e-01,    1.530808e-17,   -2.500000e-01
      11,    1.818182e-01,    1.530808e-17,   -2.500000e-01
      12,    1.363636e-01,    1.530808e-17,   -2.500000e-01
      13,    9.090909e-02,    1.530808e-17,   -2.500000e-01
      14,    4.545455e-02,    1.530808e-17,   -2.500000e-01
      15,    0.000000e+00,    1.530808e-17,   -2.500000e-01
      16,   -4.545455e-02,    1.530808e-17,   -2.500000e-01
      17,   -9.090909e-02,    1.530808e-17,   -2.500000e-01
      18,   -1.363636e-01,    1.530808e-17,   -2.500000e-01
      19,   -1.818182e-01,    1.530808e-17,   -2.500000e-01
      20,   -2.272727e-01,    1.530808e-17,   -2.500000e-01
** ... 292 like lines cut
**
********************************** E L E M E N T S ****************************
*ELEMENT, TYPE=STRI3, ELSET=EB1
       1,       7,      67,       6
       2,      68,      89,       8
       3,      69,      87,      10
       4,      70,      69,      11
       5,      14,      71,      13
       6,      72,      83,      15
       7,      73,      81,      17
       8,      74,      73,      18
       9,      75,      80,      20
      10,      76,      75,      21
      11,      77,      76,      22
      12,      78,      77,      23
      13,      79,      78,      24
      14,       2,      26,      25
      15,      80,      19,      20
      16,      81,      16,      17
      17,      82,      25,      26
      18,      83,      14,      15
      19,      85,      12,      13
      20,      86,      84,      28
** ... 536 like lines cut
*ELEMENT, TYPE=B21, ELSET=EB2
     557,       1,       5
     558,       5,       6
     559,       6,       7
     560,       7,       8
     561,       8,       9
     562,       9,      10
     563,      10,      11
     564,      11,      12
     565,      12,      13
     566,      13,      14
     567,      14,      15
     568,      15,      16
     569,      16,      17
     570,      17,      18
     571,      18,      19
     572,      19,      20
     573,      20,      21
     574,      21,      22
     575,      22,      23
     576,      23,      24
** ... 46 like lines cut
**
********************************** P R O P E R T I E S ************************
*SHELL SECTION, ELSET=EB1, SECTION INTEGRATION=SIMPSON, MATERIAL=Default-Steel
1.000000e+00
**
*END PART
**
**
**
********************************** E N D   P A R T S **********************************
**
**
********************************** A S S E M B L Y ************************************
**
*ASSEMBLY, NAME=ASSEMBLY1
**
*INSTANCE, NAME=Part-Default_1, PART=Part-Default
*END INSTANCE
**
*END ASSEMBLY
**
**
**
*MATERIAL, NAME = Default-Steel
*ELASTIC, TYPE=ISOTROPIC
2.068000e+05, 2.900000e-01
*DENSITY
7.000000e-06
*CONDUCTIVITY,TYPE=ISO
4.500000e-02
*SPECIFIC HEAT
5.000000e+02
**
**
************************************** H I S T O R Y *************************************
**
*PREPRINT
**
**************************************** S T E P 1 ***************************************
*STEP,INC=100,NAME=Default Set
**
*STATIC
1, 1, 1e-05, 1
**
**
**
**
*END STEP
