*HEADING
cubit(Colin/Projects/fem_inhomogeneous_waveguide/rect_test3.inp): 03/09/2022: 06
version: 2021.11
**
********************************** P A R T S **********************************
*PART, NAME=Part-Default
**
********************************** N O D E S **********************************
*NODE, NSET=ALLNODES
       1,    1.000000e+00,   -5.000000e-01
       2,   -1.000000e+00,   -5.000000e-01
       3,    1.000000e+00,   -3.333333e-02
       4,    1.000000e+00,   -6.666667e-02
       5,    1.000000e+00,   -1.000000e-01
       6,    1.000000e+00,   -1.333333e-01
       7,    1.000000e+00,   -1.666667e-01
       8,    1.000000e+00,   -2.000000e-01
       9,    1.000000e+00,   -2.333333e-01
      10,    1.000000e+00,   -2.666667e-01
      11,    1.000000e+00,   -3.000000e-01
      12,    1.000000e+00,   -3.333333e-01
      13,    1.000000e+00,   -3.666667e-01
      14,    1.000000e+00,   -4.000000e-01
      15,    1.000000e+00,   -4.333333e-01
      16,    1.000000e+00,   -4.666667e-01
      17,    9.661017e-01,   -5.000000e-01
      18,    9.322034e-01,   -5.000000e-01
      19,    8.983051e-01,   -5.000000e-01
      20,    8.644068e-01,   -5.000000e-01
** ... 2064 like lines cut
**
********************************** E L E M E N T S ****************************
*ELEMENT, TYPE=STRI3, ELSET=EB1
       1,    1133,    1161,    1134
       2,    1132,    1162,    1133
       3,    1131,    1163,    1132
       4,    1130,    1164,    1131
       5,    1129,    1165,    1130
       6,    1128,    1166,    1129
       7,    1127,    1167,    1128
       8,    1126,    1168,    1127
       9,    1125,    1169,    1126
      10,    1124,    1170,    1125
      11,    1123,    1171,    1124
      12,    1122,    1172,    1123
      13,    1121,    1173,    1122
      14,    1120,    1174,    1121
      15,    1119,    1175,    1120
      16,    1118,    1176,    1119
      17,    1117,    1177,    1118
      18,    1116,    1178,    1117
      19,    1115,    1179,    1116
      20,    1114,    1180,    1115
** ... 1974 like lines cut
*ELEMENT, TYPE=STRI3, ELSET=EB2
    1995,      61,      89,      62
    1996,      60,      90,      61
    1997,      59,      91,      60
    1998,      58,      92,      59
    1999,      57,      93,      58
    2000,      56,      94,      57
    2001,      55,      95,      56
    2002,      54,      96,      55
    2003,      53,      97,      54
    2004,      52,      98,      53
    2005,      51,      99,      52
    2006,      50,     100,      51
    2007,      49,     101,      50
    2008,      48,     102,      49
    2009,      47,     103,      48
    2010,      46,     104,      47
    2011,      45,     105,      46
    2012,      44,     106,      45
    2013,      43,     107,      44
    2014,      42,     108,      43
** ... 1974 like lines cut
*ELEMENT, TYPE=B21, ELSET=EB3
    3989,    1013,    1017
    3990,    1017,    1018
    3991,    1018,    1019
    3992,    1019,    1020
    3993,    1020,    1021
    3994,    1021,    1022
    3995,    1022,    1023
    3996,    1023,    1024
    3997,    1024,    1025
    3998,    1025,    1026
    3999,    1026,    1027
    4000,    1027,    1028
    4001,    1028,    1029
    4002,    1029,    1030
    4003,    1030,    1031
    4004,    1031,    1032
    4005,    1032,    1033
    4006,    1033,    1034
    4007,    1034,    1035
    4008,    1035,    1036
** ... 158 like lines cut
**
********************************** P R O P E R T I E S ************************
*SHELL SECTION, ELSET=EB1, SECTION INTEGRATION=SIMPSON, MATERIAL=Default-Steel
1.000000e+00
*SHELL SECTION, ELSET=EB2, SECTION INTEGRATION=SIMPSON, MATERIAL=Default-Steel
1.000000e+00
**
*END PART
**
**
**
********************************** E N D   P A R T S **********************************
**
**
********************************** A S S E M B L Y ************************************
**
*ASSEMBLY, NAME=ASSEMBLY1
**
*INSTANCE, NAME=Part-Default_1, PART=Part-Default
*END INSTANCE
**
*END ASSEMBLY
**
**
**
*MATERIAL, NAME = Default-Steel
*ELASTIC, TYPE=ISOTROPIC
2.068000e+05, 2.900000e-01
*DENSITY
7.000000e-06
*CONDUCTIVITY,TYPE=ISO
4.500000e-02
*SPECIFIC HEAT
5.000000e+02
**
**
************************************** H I S T O R Y *************************************
**
*PREPRINT
**
**************************************** S T E P 1 ***************************************
*STEP,INC=100,NAME=Default Set
**
*STATIC
1, 1, 1e-05, 1
**
**
**
**
*END STEP
