*HEADING
cubit(Colin/Projects/fem_inhomogeneous_waveguide/small_test.inp): 03/09/2022: 01
version: 2021.11
**
********************************** P A R T S **********************************
*PART, NAME=Part-Default
**
********************************** N O D E S **********************************
*NODE, NSET=ALLNODES
       1,    5.000000e-01,    5.000000e-01
       2,   -5.000000e-01,    5.000000e-01
       3,   -5.000000e-01,   -5.000000e-01
       4,    5.000000e-01,   -5.000000e-01
       5,    0.000000e+00,    5.000000e-01
       6,   -5.000000e-01,    0.000000e+00
       7,    0.000000e+00,   -5.000000e-01
       8,    5.000000e-01,    0.000000e+00
       9,   -1.863152e-01,    1.545976e-01
      10,    2.131118e-01,    2.008757e-01
      11,   -1.794073e-01,   -2.272001e-01
      12,    2.021976e-01,   -1.699635e-01
**
********************************** E L E M E N T S ****************************
*ELEMENT, TYPE=STRI3, ELSET=EB1
       1,       2,       9,       5
       2,      10,       1,       5
       3,      11,       9,       6
       4,      11,       6,       3
       5,      12,      11,       7
       6,      12,       7,       4
       7,       9,       2,       6
       8,       9,      10,       5
       9,      10,       8,       1
      10,      10,      12,       8
      11,      11,       3,       7
      12,      12,       9,      11
      13,      12,       4,       8
      14,      12,      10,       9
*ELEMENT, TYPE=B21, ELSET=EB2
      15,       4,       8
      16,       8,       1
      17,       3,       7
      18,       7,       4
      19,       2,       6
      20,       6,       3
      21,       1,       5
      22,       5,       2
**
********************************** P R O P E R T I E S ************************
*SHELL SECTION, ELSET=EB1, SECTION INTEGRATION=SIMPSON, MATERIAL=Default-Steel
1.000000e+00
**
*END PART
**
**
**
********************************** E N D   P A R T S **********************************
**
**
********************************** A S S E M B L Y ************************************
**
*ASSEMBLY, NAME=ASSEMBLY1
**
*INSTANCE, NAME=Part-Default_1, PART=Part-Default
*END INSTANCE
**
*END ASSEMBLY
**
**
**
*MATERIAL, NAME = Default-Steel
*ELASTIC, TYPE=ISOTROPIC
2.068000e+05, 2.900000e-01
*DENSITY
7.000000e-06
*CONDUCTIVITY,TYPE=ISO
4.500000e-02
*SPECIFIC HEAT
5.000000e+02
**
**
************************************** H I S T O R Y *************************************
**
*PREPRINT
**
**************************************** S T E P 1 ***************************************
*STEP,INC=100,NAME=Default Set
**
*STATIC
1, 1, 1e-05, 1
**
**
**
**
*END STEP
